test/test_files/validation_tests/case2848rte.m
function mpc = case2848rte
%CASE2848RTE  AC Power flow data for French system.
%   Please see CASEFORMAT for details on the case file format.
%
%   This case accurately represents the size and complexity of French
%   very high voltage transmission network.
%   Part of this data was sampled in the offline platform of iTesla.
%   These data can be used to validate mathematical methods and tools.
%   These data should NOT be used for operation
%   nor planning of the French or European grids.
%
%   When publishing results based on this data, please cite:
%
%     C. Josz, S. Fliscounakis, J. Maeght, and P. Panciatici, "AC Power Flow
%     Data in MATPOWER and QCQP Format: iTesla, RTE Snapshots, and PEGASE"
%     http://arxiv.org/abs/1603.01533
%
%   Contacts:
%     Cédric Josz, Stéphane Fliscounakis, Jean Maeght, Patrick Panciatici
%     firstname.lastname@rte-france.com
%     Réseau de Transport d'Electricité (French Transmission System Operator)
%     Département Expertise Système, Immeuble "Le Colbert"
%     9 rue de la Porte de Buc, 78000 Versailles Cedex, France
%
%   March 3rd, 2016

%   MATPOWER
%   Copyright (c) 2016 by Cédric Josz, Stéphane Fliscounakis, Jean Maeght,
%   and Patrick Panciatici
%   Licensed under the Creative Commons Attribution 4.0 International license,
%   http://creativecommons.org/licenses/by/4.0/

%% MATPOWER Case Format : Version 2
mpc.version = '2';

%%-----  Power Flow Data  -----%%
%% system MVA base
mpc.baseMVA = 100;

%% bus data
%    bus_i    type    Pd    Qd    Gs    Bs    area    Vm    Va    baseKV    zone    Vmax    Vmin
mpc.bus = [
    1    1    20.6    0    0    0    1    1.05470451    -6.36026061    63    1    1.06349    0.936508;
    2    1    20.9    17.2    0    0    1    1.02159805    -10.0314743    225    1    1.08889    0.888889;
    3    1    0    0    0    0    1    1.05588778    -3.06269451    380    1    1.10263    1;
    4    1    0    0    0    0    1    1.03948873    -12.6263397    63    1    1.07937    0.920635;
    5    1    0.4    0.1    0    0    1    0.940804175    -6.95718171    45    1    1    0.888889;
    6    1    -2.3    -20.6    0    0    1    0.941885188    -6.97237088    45    1    1    0.888889;
    7    1    110.5    -25.5    0    0    1    1.05055953    -2.81195782    225    1    1.08444    1;
    8    1    44.7    1.5    0    0    1    1.0071444    -12.4478352    63    1    1.06349    0.968254;
    9    1    0    0    0    -21    1    1.04132742    -4.20175523    20    1    1.2    0.8;
    2966    1    0    0    0    -64    1    1.00669238    -7.54386139    20    1    1.2    0.8;
    10    1    0    0    0    0    1    1.05503926    -6.89751672    150    1    1.10667    0.9;
    11    1    31.7    -8.7    0    0    1    1.05818138    -7.16161201    225    1    1.08889    0.933333;
    2571    1    43.7    9.9    0    0    1    1.05428054    -6.88624557    225    1    1.08889    0.933333;
    12    1    0    0    0    0    1    1.06222639    -4.24366423    380    1    1.10526    1;
    13    1    0    0    0    0    1    1.03414703    -9.76584244    225    1    1.09067    1;
    14    1    -4.1    3.7    0    0    1    1.0215438    -9.38943925    63    1    1.06349    0.936508;
    15    1    9    -3.3    0    0    1    1.04614056    -8.39002618    63    1    1.06349    0.936508;
    16    1    120    6.3    0    0    1    1.06403453    -8.65058577    225    1    1.08889    0.933333;
    17    1    35    6.9    0    0    1    1.02935099    -12.4430446    225    1    1.08889    1;
    18    1    45    13.4    0    0    1    1.0075651    -9.91263869    225    1    1.08962    1;
    19    2    0    0    0    0    1    1.049    -8.246157    63    1    1.08661    0.920635;
    20    1    77.3    29.1    0    0    1    1.02929559    -12.4534553    225    1    1.08889    1;
    21    1    48.4    4    0    0    1    1.02562416    -6.46141759    225    1    1.08889    0.888889;
    22    1    4.6    -11.4    0    0    1    1.09924094    -10.8960451    63    1    1.07249    0.936508;
    23    1    33.3    -5.7    0    0    1    1.0301766    -9.27643904    63    1    1.06349    0.936508;
    24    1    0    0    0    0    1    1.03910213    -6.68968647    225    1    1.08889    1;
    2573    1    0    0    0    0    1    1.03910921    -6.69233272    225    1    1.08889    1;
    25    1    18    5.6    0    0    1    1.02598542    -6.49866255    225    1    1.08889    0.888889;
    26    1    1    -8    0    0    1    1.06325955    -1.70151189    225    1    1.09649    0.986667;
    27    1    22    -5.6    0    0    1    1.05527933    -8.77731848    63    1    1.06349    0.936508;
    28    1    -2.1    -0.1    0    0    1    1.01993061    -10.9621246    225    1    1.08889    1;
    2574    1    39.1    10    0    0    1    1.01988664    -10.965406    225    1    1.08889    1;
    29    1    7.1    -2.6    0    0    1    1.03819592    -8.39782087    63    1    1.06349    0.936508;
    30    1    3.5    -40    0    0    1    1.03258071    -10.6681728    225    1    1.08889    1;
    31    1    7.7    -1.8    0    0    1    1.04938692    -6.3603325    63    1    1.07211    0.936508;
    32    1    12.1    2.1    0    0    1    1.04250787    -8.31281305    63    1    1.06349    0.936508;
    33    1    2.4    -0.4    0    0    1    0.940485632    -7.25819904    45    1    1    0.888889;
    34    1    -0    0    0    0    1    0.940865068    -6.95267473    45    1    1    0.888889;
    35    1    26    0.1    0    0    1    1.03234966    -13.0968693    63    1    1.06349    0.968254;
    36    1    0.7    -4.1    0    0    1    0.988075344    -9.71068641    45    1    1    0.888889;
    37    1    9.3    -5.3    0    0    1    1.04678026    -7.87153815    63    1    1.06349    0.936508;
    39    1    78.4    -4.8    0    0    1    1.05160168    -6.13328797    225    1    1.08934    0.986667;
    40    1    25.1    -3.3    0    0    1    1.03063944    -8.10910456    225    1    1.08889    0.888889;
    41    1    80.4    7.4    0    0    1    1.06101612    -20.3127254    225    1    1.08444    1;
    42    1    37.8    2.9    0    0    1    1.05037433    -6.38658783    63    1    1.0637    0.936508;
    43    1    0    0    0    0    1    1.05574253    -5.20380665    225    1    1.08889    0.933333;
    44    1    29    -10    0    0    1    1.03096413    -13.3440235    63    1    1.06349    0.968254;
    45    1    97.4    -3    0    0    1    1.02760856    -8.13451475    225    1    1.08889    1;
    46    1    0    0    0    0    1    1.05587689    -3.05334806    380    1    1.10526    1;
    2575    1    0    0    0    0    1    1.05588619    -3.04946991    380    1    1.10526    1;
    47    1    21.3    -2.6    0    0    1    1.03304321    -5.13913852    63    1    1.06606    0.936508;
    48    1    -0.3    0.8    0    0    1    1.05369464    -6.66317717    63    1    1.06735    0.936508;
    49    1    11.6    3.2    0    0    1    1.0303725    -6.10178718    63    1    1.06349    0.968254;
    2576    1    9.3    4.7    0    0    1    1.0302496    -6.84730915    63    1    1.06349    0.968254;
    50    1    0    0    0    0    1    1.05751774    -5.77466491    225    1    1.08444    1;
    51    1    66.6    0    0    0    1    1.04138928    -9.34301151    225    1    1.08444    1;
    52    1    0    0    0    0    1    1.02965965    -12.3109268    225    1    1.08889    1;
    2942    1    53.9    11.2    0    0    1    1.0173724    -12.1166435    225    1    1.08889    1;
    53    2    7.9    -4.7    0    0    1    1.05    -9.86414774    63    1    1.06349    0.968254;
    54    1    0    0    0    0    1    1.06856453    -8.92739903    150    1    1.08    0.966667;
    55    1    40.5    8.5    0    0    1    1.01750681    -22.5640563    225    1    1.09459    1;
    56    1    0    0    0    0    1    1.02812553    -20.2896436    380    1    1.10526    1;
    57    1    80.2    -7.7    0    0    1    1.05169697    -9.38998454    225    1    1.08889    0.986667;
    58    1    0    0    0    -64    1    1.02139829    -6.61396329    20    1    1.2    0.8;
    59    1    35.3    -9.2    0    0    1    1.02572051    -6.37982103    225    1    1.08889    0.968889;
    60    1    58.9    2.6    0    0    1    1.02923842    -5.15337783    380    1    1.10526    1;
    61    1    5.5    1.7    0    0    1    1.05015512    -7.76189029    63    1    1.06349    0.936508;
    62    1    0.6    0.7    0    0    1    0.999480934    -13.640044    63    1    1.06349    0.968254;
    63    1    28.6    4.1    0    0    1    0.999689018    -13.6374304    63    1    1.06349    0.968254;
    2577    1    0    0    0    0    1    0.999684281    -14.9082168    63    1    1.06349    0.968254;
    64    1    39.6    9.4    0    0    1    1.06725685    -5.84543649    225    1    1.08889    0.933333;
    65    1    0    0    0    0    1    0.999663036    -14.9116454    63    1    1.06349    0.968254;
    66    1    12.5    -6.5    0    0    1    0.997367849    -6.30218084    45    1    1    0.888889;
    2578    2    0    0    0    0    1    1    -6.33871659    45    1    1    0.888889;
    67    1    0.4    3.2    0    0    1    1.0310041    -7.7303186    225    1    1.08889    0.888889;
    2579    1    42.5    7.2    0    0    1    1.0305907    -7.82315842    225    1    1.08889    0.888889;
    68    1    4.2    -2.2    0    0    1    1.03362169    -16.0862093    20    1    1.2    0.8;
    69    1    139.3    4.7    0    0    1    1.03360711    -16.084233    225    1    1.08685    1;
    70    1    83.7    -8.3    0    0    1    1.034954    -11.8072494    225    1    1.08889    1;
    71    2    0    0    0    0    1    1.079    -9.57327967    150    1    1.10885    0.9;
    72    1    0    0    0    0    1    1.02511353    -10.801354    225    1    1.08889    1;
    2580    1    0    0    0    0    1    1.02511332    -10.8013528    225    1    1.08889    1;
    74    1    0    0    0    -80    1    1.02511209    -10.8013459    225    1    1.08889    1;
    75    1    15.2    5.4    0    0    1    1.03893454    -5.27223942    63    1    1.06349    0.936508;
    76    2    0    0    0    0    1    0.953    -5.60214855    45    1    1    0.888889;
    77    1    5.7    -1.3    0    0    1    1.04829988    -9.04774903    63    1    1.08481    0.920635;
    78    1    7.8    5.8    0    0    1    1.02659198    -8.46669539    225    1    1.08889    1;
    79    1    14    -4.6    0    0    1    1.02059953    -23.2891822    63    1    1.07937    0.920635;
    80    1    7.1    -2.3    0    0    1    1.05709923    -10.2916878    63    1    1.08744    0.920635;
    81    1    0    0    0    0    1    1.05316553    -11.9798632    225    1    1.08889    1;
    82    1    59.6    24    0    0    1    1.03021446    -8.29389364    225    1    1.08889    0.888889;
    83    1    27.8    -7.5    0    0    1    1.01336719    -17.7847619    63    1    1.06349    0.967399;
    84    1    61.1    -4.5    0    0    1    1.00899018    -6.86088938    225    1    1.08889    0.968889;
    85    1    0    0    0    0    1    1.00582323    -4.80208979    380    1    1.10526    1;
    86    1    31.8    1    0    0    1    1.01449967    -15.6928268    63    1    1.06349    0.968254;
    87    1    22.8    -0.9    0    0    1    1.02594104    -7.92848984    63    1    1.06349    0.968254;
    88    1    2.1    0.8    0    0    1    1.01573779    -10.8697023    63    1    1.06349    0.968254;
    89    1    30.5    6.3    0    0    1    0.995988807    -8.9710933    63    1    1.06349    0.968254;
    2581    1    32    12.1    0    0    1    0.995955047    -8.89879361    63    1    1.06349    0.968254;
    90    1    0    0    0    0    1    1.040345    -8.81928779    225    1    1.08444    1;
    2582    1    0    0    0    0    1    1.04046537    -8.81886463    225    1    1.08444    1;
    91    1    89.3    -15.7    0    0    1    1.03589901    -12.9847819    225    1    1.08889    1;
    92    1    6.4    -11.6    0    0    1    1.0773422    -4.35184814    225    1    1.09041    0.933333;
    93    2    0    0    0    0    1    1.078    -9.67303839    150    1    1.10907    0.9;
    94    1    37.7    57.2    0    0    1    1.03370721    -7.579802    225    1    1.08444    1;
    2583    1    33.4    -0.5    0    0    1    1.0346576    -7.58567408    225    1    1.08444    1;
    95    1    0    0    0    0    1    1.03512475    -7.90435919    225    1    1.08889    0.977778;
    96    1    9    0.8    0    0    1    1.04308726    -6.05919942    225    1    1.08889    0.888889;
    97    1    35.8    4.5    0    0    1    1.00116437    -14.57533    63    1    1.06349    0.968254;
    98    1    16.5    -8.7    0    0    1    1.05435999    -7.28660136    225    1    1.08889    0.933333;
    99    1    28.6    5    0    0    1    1.03406228    -9.82270804    225    1    1.08889    1;
    2584    1    14.5    3.6    0    0    1    1.00686529    -10.0792538    225    1    1.08889    1;
    100    1    7.3    -5.1    0    0    1    1.05230707    -12.2736164    225    1    1.08889    1;
    101    1    6.4    2.5    0    0    1    1.0477396    -5.78079344    225    1    1.08889    0.986667;
    102    1    0    0    0    0    1    1.03543967    -7.59799652    225    1    1.08889    0.888889;
    2585    1    0    0    0    0    1    1.03250713    -7.70002071    225    1    1.08889    0.888889;
    103    1    0    0    0    0    1    1.0354284    -5.85418481    380    1    1.10526    1;
    104    1    45.6    7    0    0    1    1.02012385    -11.1249232    225    1    1.08889    1;
    2586    1    19.1    5.8    0    -80    1    1.02519836    -9.92093035    225    1    1.08889    1;
    105    1    10.1    -0.9    0    0    1    1.02240628    -11.7394734    63    1    1.07937    0.920635;
    106    1    0    0    0    0    1    1.05453368    -6.30318143    225    1    1.08889    0.977778;
    2587    1    0    0    0    0    1    1.05454939    -6.30342404    225    1    1.08889    0.977778;
    107    1    8.4    3.5    0    0    1    1.03341873    -9.33683254    63    1    1.06349    0.968254;
    108    1    39.7    -6.4    0    0    1    1.05327278    -6.84719521    225    1    1.08444    1;
    109    1    0    0    0    0    1    1.04505982    -5.67696448    225    1    1.08444    1;
    110    1    0    0    0    0    1    1.04245389    0.658976821    380    1    1.10263    1;
    111    1    62.2    -16.1    0    0    1    1.0449323    -5.74055895    225    1    1.08444    1;
    112    1    2.2    -1    0    0    1    1.00833098    -9.79513081    225    1    1.09035    1;
    2588    1    12.3    -2    0    0    1    1.00830403    -9.80171214    225    1    1.09035    1;
    113    1    5    -3.8    0    0    1    1.05835537    -2.9554883    225    1    1.08889    0.888889;
    114    1    30    0    0    0    1    1.0458544    -8.537789    63    1    1.06349    0.936508;
    115    1    11.7    1.8    0    0    1    1.02989719    -7.47988769    225    1    1.08889    0.888889;
    116    1    51.9    15.9    0    0    1    1.00893367    -7.47468297    225    1    1.08889    0.888889;
    117    1    2.6    0.2    0    0    1    1.04056825    -7.77992158    63    1    1.06349    0.968254;
    118    1    38    3.1    0    0    1    1.00631183    -25.3303958    63    1    1.07937    0.920635;
    119    1    24    -7.3    0    0    1    1.027299    -15.3864117    63    1    1.06349    0.968254;
    120    2    0    0    0    0    1    1.038    -6.16337145    63    1    1.06863    0.936508;
    121    1    8    2.5    0    0    1    1.03115825    -18.4930713    63    1    1.06349    0.968254;
    2589    1    9.9    3.5    0    0    1    1.03151661    -18.5003924    63    1    1.06349    0.968254;
    122    1    77.1    -3.9    0    0    1    1.02568006    -7.97134302    225    1    1.08889    1;
    123    1    21.2    4.4    0    0    1    1.03854288    -13.8649462    63    1    1.07937    0.920635;
    124    2    -0    -4.6    0    0    1    1.047    -10.0473018    63    1    1.08203    0.920635;
    125    1    0    0    0    0    1    1.03627903    -18.561608    63    1    1.07937    0.920635;
    126    1    0    0    0    0    1    1.01319228    -12.8327281    225    1    1.08889    1;
    127    1    0    0    0    0    1    1.05062871    -12.8751284    380    1    1.10526    1;
    128    1    17.1    1.5    0    0    1    1.0548165    -6.4342118    63    1    1.06349    0.936508;
    129    2    18.2    12.2    0    0    1    1.029    -7.4188605    63    1    1.06349    0.936508;
    130    1    -13.2    16.1    0    0    1    1.0438103    -13.0828949    63    1    1.07937    0.920635;
    131    1    0    0    0    0    1    1.04997009    -11.375814    225    1    1.08889    1;
    132    1    81.2    18.3    0    0    1    1.04787402    -10.5448015    225    1    1.08889    1;
    133    2    9.6    3.3    0    0    1    1.028    -21.4059689    63    1    1.06538    0.968254;
    134    2    0    0    0    0    1    1.042    -15.5753316    150    1    1.08    0.966667;
    135    2    -8.9    -4.4    0    0    1    1.066    -10.8988078    63    1    1.07937    0.920635;
    136    1    -10.6    -2.1    0    0    1    1.03361325    -4.09140552    225    1    1.08889    0.986667;
    137    1    14.1    -3.7    0    0    1    1.01208758    -12.7523015    63    1    1.06349    0.968254;
    138    1    11.3    -2.7    0    0    1    1.07000448    -4.36673714    225    1    1.08444    1;
    139    1    9.4    -2.2    0    0    1    1.0098168    -20.8608447    63    1    1.06349    0.968254;
    140    1    0    0    0    0    1    1.02957315    -2.43049674    380    1    1.10526    1;
    2590    1    0    0    0    0    1    1.03059016    -2.74964759    380    1    1.10526    1;
    141    1    11.1    4.5    0    0    1    1.02794966    -8.01355421    225    1    1.08889    1;
    142    1    7.2    5.2    0    0    1    1.03527316    -10.5477788    225    1    1.08889    1;
    143    1    20.9    -1.3    0    0    1    1.0156966    -14.3067102    63    1    1.06349    0.968254;
    144    1    33.4    6.5    0    0    1    1.06450753    -11.4790353    150    1    1.1    0.9;
    145    1    61.8    -3.3    0    0    1    1.03168242    -14.3088938    225    1    1.08925    1;
    146    2    0    -0    0    0    1    1.02    -10.9841092    225    1    1.08889    1;
    147    1    0    0    0    0    1    1.05726942    -7.25386689    225    1    1.08889    0.933333;
    148    1    0    0    0    0    1    1.06212699    -4.22135461    380    1    1.10526    1;
    2591    1    0    0    0    0    1    1.06215942    -4.21515111    380    1    1.10526    1;
    149    1    0    0    0    0    1    1.02963817    -12.423694    225    1    1.08889    1;
    2592    1    61.8    10.2    0    0    1    1.01653799    -12.2983583    225    1    1.08889    1;
    150    1    0    0    0    0    1    1.01066159    -5.39373722    225    1    1.08889    0.986667;
    151    1    9.8    4.5    0    0    1    1.02946506    -12.43406    225    1    1.08889    1;
    152    1    0    0    0    0    1    1.06476781    -3.62849011    20    1    1.2    0.8;
    153    1    88.2    -7.1    0    0    1    1.05668343    -3.22112522    225    1    1.08889    0.933333;
    154    1    0    0    0    0    1    1.05807749    -1.38344872    380    1    1.10526    1;
    155    1    23.8    -12.3    0    0    1    1.02642423    -6.35525738    225    1    1.08889    1;
    156    1    18.2    -0.6    0    0    1    1.05933631    -7.56367112    63    1    1.06503    0.936508;
    157    1    0.4    0.2    0    0    1    1.03786549    -9.40822782    63    1    1.06349    0.968254;
    158    1    18.7    -2.5    0    0    1    1.02886987    -15.0271693    63    1    1.07937    0.920635;
    159    1    19.2    -1    0    0    1    1.01435913    -16.3125652    63    1    1.06349    0.968254;
    160    1    4    0.2    0    0    1    1.05293054    -8.69416637    63    1    1.06349    0.936508;
    161    2    0    0    0    0    1    1.063    -15.102627    63    1    1.15    0.8;
    162    1    2.8    3.9    0    0    1    1.03530426    -11.220724    225    1    1.09053    1;
    163    1    0    0    0    0    1    1.03097224    -23.8741599    63    1    1.06349    0.968254;
    164    1    68.7    -27.8    0    0    1    1.04298945    -15.2894298    225    1    1.09791    1;
    165    1    70.9    -7.8    0    0    1    1.03980018    -3.98818151    225    1    1.08889    0.986667;
    166    1    35.7    1.2    0    0    1    1.0138269    -10.9079236    63    1    1.06349    0.968254;
    167    1    66.9    15.7    0    0    1    1.03414515    -9.7605369    225    1    1.09067    1;
    168    1    10.2    -5.9    0    0    1    1.05143246    -8.21379396    63    1    1.06349    0.936508;
    169    1    22.5    -8.3    0    0    1    1.03977254    -11.0520793    63    1    1.06349    0.968254;
    170    1    3.1    1.2    0    0    1    1.04549514    -7.92681615    63    1    1.06822    0.936508;
    171    1    103.9    36.4    0    0    1    1.0279787    -8.48321396    225    1    1.08889    0.924444;
    172    2    -0    0    0    0    1    1.03117205    -7.46842751    63    1    1.06349    0.968254;
    173    1    46.9    -16.3    0    0    1    1.05679354    -0.866806167    225    1    1.09616    0.986667;
    174    1    0    0    0    0    1    1.05916881    -0.28973401    380    1    1.10526    1;
    175    1    83.4    -19.9    0    0    1    1.05104139    -13.6865226    225    1    1.08444    1;
    176    1    0    0    0    -64    1    1.00911929    -19.4666264    20    1    1.2    0.8;
    177    1    0    0    0    0    1    0.98594024    -20.9282754    63    1    1.06349    0.960855;
    178    1    0    0    0    0    1    1.05933935    -19.1624772    225    1    1.08444    1;
    179    1    0    0    0    0    1    1.05477538    -16.725398    380    1    1.10263    1;
...
];

%% generator data
%    bus    Pg    Qg    Qmax    Qmin    Vg    mBase    status    Pmax    Pmin    Pc1    Pc2    Qc1min    Qc1max    Qc2min    Qc2max    ramp_agc    ramp_10    ramp_30    ramp_q    apf
mpc.gen = [
    1279    7    -0.13    15    -15    1.037    100    1    35    7    0    0    0    0    0    0    0    0    0    0    0;
    1210    20.27    -0.32    20    -15    1.059    100    1    36.1    7.22    0    0    0    0    0    0    0    0    0    0    0;
    751    44    -0.21    21    -9    1.01    100    1    46    9.2    0    0    0    0    0    0    0    0    0    0    0;
    978    2.18    -0    0.1    -0.1    1.071    100    1    4    0    0    0    0    0    0    0    0    0    0    0    0;
    978    6    0.9    1    0.9    1.071    100    1    7    1.4    0    0    0    0    0    0    0    0    0    0    0;
    158    -0.1    0    0    0    1.024    100    1    2.7    0    0    0    0    0    0    0    0    0    0    0    0;
    1217    11.99    -0.82    5    -5    1.053    100    1    13    2.6    0    0    0    0    0    0    0    0    0    0    0;
    367    27.57    -0.61    27    -9    1.036    100    1    50    10    0    0    0    0    0    0    0    0    0    0    0;
    1127    -0.66    0    0    0    1.033    100    1    16    3.2    0    0    0    0    0    0    0    0    0    0    0;
    460    12.4    -1.2    40    -40    1.077    100    1    62    12.4    0    0    0    0    0    0    0    0    0    0    0;
    968    15.38    -0.05    10    -10    1.07    100    1    18    3.6    0    0    0    0    0    0    0    0    0    0    0;
    1827    21    -0.19    7    -12    1.05    100    1    22    4.4    0    0    0    0    0    0    0    0    0    0    0;
    1466    37.99    -0.02    5    -15    1.07    100    1    40    1    0    0    0    0    0    0    0    0    0    0    0;
    2863    15.76    -0.03    6    -6    1.015    100    1    40    1    0    0    0    0    0    0    0    0    0    0    0;
    1466    37.99    -0.02    5    -15    1.07    100    1    40    1    0    0    0    0    0    0    0    0    0    0    0;
    2863    15.76    -0.03    6    -6    1.015    100    1    40    1    0    0    0    0    0    0    0    0    0    0    0;
    1072    4.88    0.9    1    0.9    1.08    100    1    12    2.4    0    0    0    0    0    0    0    0    0    0    0;
    1072    0    0    1    0.9    1.08    100    0    14    2.8    0    0    0    0    0    0    0    0    0    0    0;
    1072    4.88    0.9    1    0.9    1.08    100    1    12    2.4    0    0    0    0    0    0    0    0    0    0    0;
    642    -0.62    0.22    3    -3    1.013    100    1    10.33    2.07    0    0    0    0    0    0    0    0    0    0    0;
    642    -0.22    0.22    3    -3    1.013    100    1    10.33    2.07    0    0    0    0    0    0    0    0    0    0    0;
    542    5    -0.85    22    -10    1.011    100    1    50    5    0    0    0    0    0    0    0    0    0    0    0;
    773    0.94    0    0    0    1.039    100    1    12    2.4    0    0    0    0    0    0    0    0    0    0    0;
    399    3.81    0    0    0    1.05    100    1    13.8    2.76    0    0    0    0    0    0    0    0    0    0    0;
    399    -0.18    0    0    0    1.05    100    1    1.2    0    0    0    0    0    0    0    0    0    0    0    0;
    21    18.33    0    0    0    1.026    100    1    24    4.8    0    0    0    0    0    0    0    0    0    0    0;
    21    21.59    0    0    0    1.026    100    1    27.6    5.52    0    0    0    0    0    0    0    0    0    0    0;
    899    12.18    0    0    0    1.057    100    1    18    3.6    0    0    0    0    0    0    0    0    0    0    0;
    899    15.21    0    0    0    1.057    100    1    21    4.2    0    0    0    0    0    0    0    0    0    0    0;
    2618    1.2    0    0    0    1.054    100    1    6    1.2    0    0    0    0    0    0    0    0    0    0    0;
    2618    11.71    -0.11    10    -6    1.054    100    1    37.5    7.5    0    0    0    0    0    0    0    0    0    0    0;
    285    1.2    0    0    0    1.058    100    1    6    1.2    0    0    0    0    0    0    0    0    0    0    0;
    285    35.99    -0.12    10    -6    1.058    100    1    37.5    7.5    0    0    0    0    0    0    0    0    0    0    0;
    135    10.32    -0.01    5    -6    1.066    100    1    13    2.6    0    0    0    0    0    0    0    0    0    0    0;
    53    3.6    -0    0.8    -0.8    1.05    100    1    18    3.6    0    0    0    0    0    0    0    0    0    0    0;
    53    17    -0    0.8    -0.8    1.05    100    1    18    3.6    0    0    0    0    0    0    0    0    0    0    0;
    596    2.26    0    0    0    1.037    100    1    4    0    0    0    0    0    0    0    0    0    0    0    0;
    958    1.09    0    0    0    1.047    100    1    4.6    0    0    0    0    0    0    0    0    0    0    0    0;
    1679    19.98    -0.03    6    -4    1.058    100    1    21    4.2    0    0    0    0    0    0    0    0    0    0    0;
    1679    5.46    -0.04    6.7    -4.5    1.058    100    1    21    4.2    0    0    0    0    0    0    0    0    0    0    0;
    1157    -0.71    0    0    0    1.007    100    1    7.2    1.44    0    0    0    0    0    0    0    0    0    0    0;
    513    10    1    5    1    1.024    100    1    11    2.2    0    0    0    0    0    0    0    0    0    0    0;
    513    10    1    5    1    1.024    100    1    11    2.2    0    0    0    0    0    0    0    0    0    0    0;
    371    6    -0.04    5    -5    1.055    100    1    8    1.6    0    0    0    0    0    0    0    0    0    0    0;
    371    1.61    -0.04    5    -5    1.055    100    1    8    1.6    0    0    0    0    0    0    0    0    0    0    0;
    976    14.97    -0.08    12    -15    1.046    100    1    35    7    0    0    0    0    0    0    0    0    0    0    0;
    976    7.85    -0.08    12    -15    1.046    100    1    35    7    0    0    0    0    0    0    0    0    0    0    0;
    2754    -0.64    0    0    0    1.029    100    1    11.5    2.3    0    0    0    0    0    0    0    0    0    0    0;
    749    7.69    -0.23    5    -5    1    100    1    8.5    1.7    0    0    0    0    0    0    0    0    0    0    0;
    1188    19    1.9    2    1.9    1.077    100    1    20    4    0    0    0    0    0    0    0    0    0    0    0;
    1254    4.57    -4.14    7    -7    1.024    100    1    24    4.8    0    0    0    0    0    0    0    0    0    0    0;
    252    2.21    -0.59    8    -5    0.998    100    1    11    2.2    0    0    0    0    0    0    0    0    0    0    0;
    252    3.59    -0.33    6    -5    0.998    100    1    9    1.8    0    0    0    0    0    0    0    0    0    0    0;
    252    2.51    -0.59    8    -5    0.998    100    1    11    2.2    0    0    0    0    0    0    0    0    0    0    0;
    252    3.67    -0.33    6    -5    0.998    100    1    9    1.8    0    0    0    0    0    0    0    0    0    0    0;
    504    10.92    -0.1    6.5    -6.5    0.983    100    1    12.4    2.48    0    0    0    0    0    0    0    0    0    0    0;
    115    10.69    0    0    0    1.03    100    1    25.3    5.06    0    0    0    0    0    0    0    0    0    0    0;
    967    -1.06    0    0    0    1.07    100    1    2.3    0    0    0    0    0    0    0    0    0    0    0    0;
    1642    2    -0.02    1    -1    1.035    100    1    3    0    0    0    0    0    0    0    0    0    0    0    0;
    1811    2.7    -0.03    5.5    -5.5    1.03    100    1    9    1.8    0    0    0    0    0    0    0    0    0    0    0;
    2634    11.1    -0.02    7    -7    1.06    100    1    14    2.8    0    0    0    0    0    0    0    0    0    0    0;
    326    12.95    -0.02    7    -7    1.06    100    1    14    2.8    0    0    0    0    0    0    0    0    0    0    0;
    1829    11.99    -0.05    7.7    -7.7    1.03    100    1    12.8    2.56    0    0    0    0    0    0    0    0    0    0    0;
    1314    25.63    -0.12    19    -19    1.084    100    1    39    7.8    0    0    0    0    0    0    0    0    0    0    0;
    71    13.35    -0.04    10    -4    1.079    100    1    30    6    0    0    0    0    0    0    0    0    0    0    0;
    93    3.14    1.9    2    1.9    1.078    100    1    6    1.2    0    0    0    0    0    0    0    0    0    0    0;
    129    6.89    -0.02    4    -4    1.029    100    1    11    2.2    0    0    0    0    0    0    0    0    0    0    0;
    1594    2.4    -0.82    5    -5    1.052    100    1    12    2.4    0    0    0    0    0    0    0    0    0    0    0;
    1594    2.4    -0.82    5    -5    1.052    100    1    12    2.4    0    0    0    0    0    0    0    0    0    0    0;
    1354    2.16    -0.08    2    -2    1.032    100    1    5    0    0    0    0    0    0    0    0    0    0    0    0;
    1133    -0.88    0    0    0    1.027    100    1    17.25    3.45    0    0    0    0    0    0    0    0    0    0    0;
    1405    15.65    -0.1    12    -8    1.032    100    1    37.8    7.56    0    0    0    0    0    0    0    0    0    0    0;
    2850    15.8    -0.1    12    -8    1.032    100    1    37.8    7.56    0    0    0    0    0    0    0    0    0    0    0;
    2849    15.02    -0.11    12    -8    1.032    100    1    37.8    7.56    0    0    0    0    0    0    0    0    0    0    0;
    1122    0.89    0    0    0    1.037    100    1    6.9    1.38    0    0    0    0    0    0    0    0    0    0    0;
    1708    44.49    -0.74    27    -9    1.039    100    1    45    44    0    0    0    0    0    0    0    0    0    0    0;
    1708    44.49    -0.74    27    -9    1.039    100    1    45    44    0    0    0    0    0    0    0    0    0    0    0;
    1658    1.67    0    0    0    1.042    100    1    29.9    5.98    0    0    0    0    0    0    0    0    0    0    0;
    2884    4.54    0    0    0    1.045    100    1    13.7    2.74    0    0    0    0    0    0    0    0    0    0    0;
    1154    15.21    0    0    0    1.036    100    1    20.8    4.16    0    0    0    0    0    0    0    0    0    0    0;
    231    1.66    -0.17    8.3    -8.3    1.04    100    1    8.3    1.66    0    0    0    0    0    0    0    0    0    0    0;
    2887    11.2    -0.03    7    -3    1.021    100    1    23.7    4.74    0    0    0    0    0    0    0    0    0    0    0;
    2888    4.74    -0.03    7    -3    1.021    100    1    23.7    4.74    0    0    0    0    0    0    0    0    0    0    0;
    2889    11.28    -0.03    7    -3    1.021    100    1    23.7    4.74    0    0    0    0    0    0    0    0    0    0    0;
    1666    11.29    -0.03    7    -3    1.021    100    1    23.7    4.74    0    0    0    0    0    0    0    0    0    0    0;
    499    14.8    0.9    1    0.9    1.114    100    1    17    3.4    0    0    0    0    0    0    0    0    0    0    0;
    499    0    0    1    0.9    1.114    100    0    7    1.4    0    0    0    0    0    0    0    0    0    0    0;
    499    3.4    0.9    1    0.9    1.114    100    1    17    3.4    0    0    0    0    0    0    0    0    0    0    0;
    2709    10.44    -0.01    4    -4    1.01    100    1    24    4.8    0    0    0    0    0    0    0    0    0    0    0;
    709    13.46    -0.01    4    -4    1.01    100    1    24    4.8    0    0    0    0    0    0    0    0    0    0    0;
    2710    4.81    -0.01    4    -4    1.01    100    1    24    4.8    0    0    0    0    0    0    0    0    0    0    0;
    2708    7.56    -0.01    4    -4    1.01    100    1    24    4.8    0    0    0    0    0    0    0    0    0    0    0;
    1280    15.18    0    0    0    1.039    100    1    18    3.6    0    0    0    0    0    0    0    0    0    0    0;
    1493    0    0    11    -11    0.998    100    0    18    3.6    0    0    0    0    0    0    0    0    0    0    0;
    745    9.98    -0.05    8    -18    1.02    100    1    29    5.8    0    0    0    0    0    0    0    0    0    0    0;
    2727    12.62    -0.02    5    -18    1.029    100    1    29    5.8    0    0    0    0    0    0    0    0    0    0    0;
    1445    39.55    0    0    0    1.026    100    1    55    11    0    0    0    0    0    0    0    0    0    0    0;
    564    -0.83    0    0    0    1.01    100    1    10    2    0    0    0    0    0    0    0    0    0    0    0;
    1047    -0.34    0    0    0    1.038    100    1    12    2.4    0    0    0    0    0    0    0    0    0    0    0;
    1047    -0.6    0    0    0    1.038    100    1    2    0    0    0    0    0    0    0    0    0    0    0    0;
    1335    0.31    -0.01    3    -1    1.03    100    1    2    0    0    0    0    0    0    0    0    0    0    0    0;
    2624    14.33    -0.15    15    -17    1.07    100    1    31    6.2    0    0    0    0    0    0    0    0    0    0    0;
    298    29    -0.16    15    -17    1.06    100    1    31    6.2    0    0    0    0    0    0    0    0    0    0    0;
    298    29    -0.16    15    -17    1.06    100    1    31    6.2    0    0    0    0    0    0    0    0    0    0    0;
    2625    29    -0.16    15    -17    1.06    100    1    31    6.2    0    0    0    0    0    0    0    0    0    0    0;
    2625    29    -0.16    15    -17    1.06    100    1    31    6.2    0    0    0    0    0    0    0    0    0    0    0;
    2624    28.64    -0.15    15    -17    1.07    100    1    31    6.2    0    0    0    0    0    0    0    0    0    0    0;
    2947    10.93    -0.01    0    -0.01    1.029    100    1    24    4.8    0    0    0    0    0    0    0    0    0    0    0;
    2718    4.81    -0.05    8    -7    1.029    100    1    24    4.8    0    0    0    0    0    0    0    0    0    0    0;
    2720    4.8    -0.05    8    -7    1.029    100    1    24    4.8    0    0    0    0    0    0    0    0    0    0    0;
    741    10.85    -0.05    8    -7    1.029    100    1    24    4.8    0    0    0    0    0    0    0    0    0    0    0;
    2719    6.96    -0.05    8    -7    1.029    100    1    24    4.8    0    0    0    0    0    0    0    0    0    0    0;
    2721    11.54    -0.05    8    -7    1.029    100    1    24    4.8    0    0    0    0    0    0    0    0    0    0    0;
    283    8.43    -0.83    8    -8    1.024    100    1    23.5    4.7    0    0    0    0    0    0    0    0    0    0    0;
    1506    24.99    -0.02    6    -11    1.029    100    1    27    5.4    0    0    0    0    0    0    0    0    0    0    0;
    1506    7.94    -0.02    6    -11    1.029    100    1    27    5.4    0    0    0    0    0    0    0    0    0    0    0;
    1847    30    -0.44    12    -8    1.035    100    1    32    6.4    0    0    0    0    0    0    0    0    0    0    0;
    1398    9.19    0    0    0    1.021    100    1    20.02    4    0    0    0    0    0    0    0    0    0    0    0;
    1398    8.94    0    0    0    1.021    100    1    20.35    4.07    0    0    0    0    0    0    0    0    0    0    0;
    225    9    -1.95    45    -45    1.05    100    1    45    9    0    0    0    0    0    0    0    0    0    0    0;
    225    37.36    -1.95    45    -45    1.05    100    1    45    9    0    0    0    0    0    0    0    0    0    0    0;
    1607    1.57    0    0    0    1.038    100    1    1.74    0    0    0    0    0    0    0    0    0    0    0    0;
    314    17.53    -0.22    10    -10    0.986    100    1    20    4    0    0    0    0    0    0    0    0    0    0    0;
    2680    44.01    2.53    100    -60    1.022    100    1    239    44    0    0    0    0    0    0    0    0    0    0    0;
    582    0    0    70    -45    0.892    100    0    169    82    0    0    0    0    0    0    0    0    0    0    0;
    2978    0    0    70    -45    0.892    100    0    169    82    0    0    0    0    0    0    0    0    0    0    0;
    2977    44.01    2.55    100    -60    1.022    100    1    239    44    0    0    0    0    0    0    0    0    0    0    0;
    240    47.8    -4.08    80    -75    1.075    100    1    239    47.8    0    0    0    0    0    0    0    0    0    0    0;
    1655    7.18    0    0    0    1.016    100    1    12    2.4    0    0    0    0    0    0    0    0    0    0    0;
    1655    3.68    0    0    0    1.016    100    1    4    0    0    0    0    0    0    0    0    0    0    0    0;
    1150    36.15    0    0    0    1.047    100    1    54    10.8    0    0    0    0    0    0    0    0    0    0    0;
    1447    4.82    -0.44    2    -3    1.063    100    1    7    1.4    0    0    0    0    0    0    0    0    0    0    0;
    906    0    0    8    -8    1.077    100    0    21    4.2    0    0    0    0    0    0    0    0    0    0    0;
    1474    0    -0    1    -1    1.039    100    0    2    0    0    0    0    0    0    0    0    0    0    0    0;
    1474    1.6    -0    3    -3    1.039    100    1    8    1.6    0    0    0    0    0    0    0    0    0    0    0;
    1474    1.6    -0    3    -3    1.039    100    1    8    1.6    0    0    0    0    0    0    0    0    0    0    0;
    963    7.99    -0.01    1    -2    0.977    100    1    8.9    1.78    0    0    0    0    0    0    0    0    0    0    0;
    962    0.19    0    0    0    1.033    100    1    22    4.4    0    0    0    0    0    0    0    0    0    0    0;
    923    11    -0.07    5    -5    1.056    100    1    12    2.4    0    0    0    0    0    0    0    0    0    0    0;
    1153    14.99    -0.22    17.3    -17.3    1.04    100    1    16    3.2    0    0    0    0    0    0    0    0    0    0    0;
    1153    15.99    -0.07    10    -10    1.04    100    1    16.8    3.36    0    0    0    0    0    0    0    0    0    0    0;
    274    5.58    -0.01    3.7    -3.7    1.054    100    1    6.7    1.34    0    0    0    0    0    0    0    0    0    0    0;
    274    1.26    -0.01    3    -3    1.054    100    1    5.6    1.12    0    0    0    0    0    0    0    0    0    0    0;
    1776    9    -0.08    5    -5    1.035    100    1    10    2    0    0    0    0    0    0    0    0    0    0    0;
    1776    9    -0.08    5    -5    1.035    100    1    10    2    0    0    0    0    0    0    0    0    0    0    0;
    184    22    -0.15    8    -17    1.056    100    1    23.4    4.68    0    0    0    0    0    0    0    0    0    0    0;
    1657    5.2    -13.13    16    -17    1.038    100    1    26    5.2    0    0    0    0    0    0    0    0    0    0    0;
    1657    5.2    -13.13    16    -17    1.038    100    1    26    5.2    0    0    0    0    0    0    0    0    0    0    0;
    1761    0.95    -0    0.1    -0.1    1.079    100    1    2.5    0    0    0    0    0    0    0    0    0    0    0    0;
    1761    4.85    0.9    1    0.9    1.079    100    1    11    2.2    0    0    0    0    0    0    0    0    0    0    0;
    1868    6    -0.23    18    -18    1.055    100    1    30    6    0    0    0    0    0    0    0    0    0    0    0;
    1868    21.64    -0.23    18    -18    1.055    100    1    30    6    0    0    0    0    0    0    0    0    0    0    0;
    731    0    0    26    -26    1.053    100    0    43    8.6    0    0    0    0    0    0    0    0    0    0    0;
    2715    0    0    20    -20    1.051    100    0    38    7.6    0    0    0    0    0    0    0    0    0    0    0;
    1263    15.21    -0.14    14    -14    1.051    100    1    23.1    4.62    0    0    0    0    0    0    0    0    0    0    0;
    1263    15.21    -0.14    14    -14    1.051    100    1    23.1    4.62    0    0    0    0    0    0    0    0    0    0    0;
    161    3.6    -2.74    5    -5    1.063    100    1    18    3.6    0    0    0    0    0    0    0    0    0    0    0;
    604    5.82    -0.05    6    -6    1.054    100    1    10.2    2.04    0    0    0    0    0    0    0    0    0    0    0;
    918    2.63    0    0    0    1.029    100    1    26    5.2    0    0    0    0    0    0    0    0    0    0    0;
    1760    10.99    -0    1    -1    1.045    100    1    11.5    2.3    0    0    0    0    0    0    0    0    0    0    0;
    1760    2.3    -0    1    -1    1.045    100    1    11.5    2.3    0    0    0    0    0    0    0    0    0    0    0;
    1414    11.99    -0.07    7.8    -7.8    1.051    100    1    13    2.6    0    0    0    0    0    0    0    0    0    0    0;
    1414    10.99    -0.06    7.2    -7.2    1.051    100    1    12    2.4    0    0    0    0    0    0    0    0    0    0    0;
    662    21.23    -0.33    20    -18    1.059    100    1    40    8    0    0    0    0    0    0    0    0    0    0    0;
    2697    23.65    -0.32    20    -18    1.059    100    1    40    8    0    0    0    0    0    0    0    0    0    0    0;
    2696    23.63    -0.32    20    -18    1.059    100    1    40    8    0    0    0    0    0    0    0    0    0    0    0;
    1346    2.4    -0.04    7    -7    1.051    100    1    12    2.4    0    0    0    0    0    0    0    0    0    0    0;
    1346    2.4    -0.04    7    -7    1.051    100    1    12    2.4    0    0    0    0    0    0    0    0    0    0    0;
    2622    4.35    -0.59    26    -26    1.045    100    1    8    1.6    0    0    0    0    0    0    0    0    0    0    0;
    2622    8.8    -0.59    26    -26    1.045    100    1    15    3    0    0    0    0    0    0    0    0    0    0    0;
    291    9.73    -0.6    26    -26    1.054    100    1    19    3.8    0    0    0    0    0    0    0    0    0    0    0;
    1490    9.99    -0.06    6.5    -6.5    1.057    100    1    10.6    2.12    0    0    0    0    0    0    0    0    0    0    0;
    1671    20    -0.28    15    -15    1.023    100    1    21.4    4.28    0    0    0    0    0    0    0    0    0    0    0;
    1615    0    0    24    -24    1.051    100    0    39    7.8    0    0    0    0    0    0    0    0    0    0    0;
    1681    16.21    -17.19    26.1    -24.36    1.065    100    1    87    17.4    0    0    0    0    0    0    0    0    0    0    0;
    418    15    -4.45    50    -40    1.051    100    1    75    15    0    0    0    0    0    0    0    0    0    0    0;
    2658    15    -4.45    50    -40    1.051    100    1    75    15    0    0    0    0    0    0    0    0    0    0    0;
    418    15    -4.45    50    -40    1.051    100    1    75    15    0    0    0    0    0    0    0    0    0    0    0;
    2658    15    -4.45    50    -40    1.051    100    1    75    15    0    0    0    0    0    0    0    0    0    0    0;
    461    -0.68    -5.38    12.42    -11.59    1.06    100    1    41.4    8.28    0    0    0    0    0    0    0    0    0    0    0;
    31    6.07    0    0    0    1.034    100    1    6.68    1.34    0    0    0    0    0    0    0    0    0    0    0;
    236    3    0    7    0    1.024    100    1    15    3    0    0    0    0    0    0    0    0    0    0    0;
    236    3.01    0    7    0    1.024    100    1    15    3    0    0    0    0    0    0    0    0    0    0    0;
    1754    0.48    -0    1    -1    1.04    100    1    1    0    0    0    0    0    0    0    0    0    0    0    0;
    1754    0.48    -0    1    -1    1.04    100    1    1    0    0    0    0    0    0    0    0    0    0    0    0;
    1754    0.48    -0    1    -1    1.04    100    1    1    0    0    0    0    0    0    0    0    0    0    0    0;
    898    1.02    0    0    0    1.047    100    1    1.7    0    0    0    0    0    0    0    0    0    0    0    0;
    898    17.23    0    0    0    1.047    100    1    22.6    4.52    0    0    0    0    0    0    0    0    0    0    0;
    120    13.99    -0.07    9    -9    1.038    100    1    15    3    0    0    0    0    0    0    0    0    0    0    0;
    549    5    -0.85    22    -10    1.012    100    1    50    5    0    0    0    0    0    0    0    0    0    0    0;
    77    2.43    0    0    0    1.048    100    1    23.5    4.7    0    0    0    0    0    0    0    0    0    0    0;
    124    -5.91    0    0    0    1.047    100    1    0    -7    0    0    0    0    0    0    0    0    0    0    0;
    124    -5.91    0    0    0    1.047    100    1    0    -7    0    0    0    0    0    0    0    0    0    0    0;
    552    -1.27    0    0    0    1.037    100    1    21    4.2    0    0    0    0    0    0    0    0    0    0    0;
    1858    8.99    -0.38    6    -6    1    100    1    9.6    1.92    0    0    0    0    0    0    0    0    0    0    0;
    134    24    -7.66    13    -9    1.042    100    1    25    5    0    0    0    0    0    0    0    0    0    0    0;
    1204    8.4    -0.48    25    -20    0.971    100    1    42    8.4    0    0    0    0    0    0    0    0    0    0    0;
    1204    8.4    -0.48    25    -20    0.971    100    1    42    8.4    0    0    0    0    0    0    0    0    0    0    0;
    641    2.2    -0.06    5    -5    1.028    100    1    11    2.2    0    0    0    0    0    0    0    0    0    0    0;
    641    2.2    -0.06    5    -5    1.028    100    1    11    2.2    0    0    0    0    0    0    0    0    0    0    0;
...
];

%% branch data
%    fbus    tbus    r    x    b    rateA    rateB    rateC    ratio    angle    status    angmin    angmax
mpc.branch = [
    639    1    0.005799    0.010615    0.0075    0    0    0    1    0    1    0    0;
    909    2    0.002607    0.017462    0.0324    540    540    540    1    0    1    0    0;
    2575    3    2.1e-05    0.000125    0.1386    737    737    737    1    0    1    0    0;
    875    3    0.000145    0.001877    0.0635    2487    2487    2487    1    0    1    0    0;
    1710    3    0.000319    0.003234    0.0838    1841    1841    1841    1    0    1    0    0;
    46    3    2.1e-05    0.000125    0.1386    737    737    737    1    0    1    0    0;
    1073    4    0.037541    0.100529    0.0011    0    0    0    1    0    1    0    0;
    1533    4    0.090199    0.211388    0.0023    0    0    0    1    0    1    0    0;
    1658    4    0.09801    0.267574    0    0    0    0    1    0    1    0    0;
    1370    5    0.009383    0.019753    0    0    0    0    1    0    1    0    0;
    1370    6    0.001975    0.004444    0    0    0    0    1    0    1    0    0;
    199    7    0.006163    0.041067    0.0759    446    446    446    1    0    1    0    0;
    880    7    0.000652    0.004369    0.0081    558    558    558    1    0    1    0    0;
    1061    8    0.067019    0.137566    0.0037    0    0    0    1    0    1    0    0;
    1223    8    0.032754    0.088939    0.0039    0    0    0    1    0    1    0    0;
    1223    8    0.030184    0.080096    0.0053    0    0    0    1    0    1    0    0;
    1371    10    0.009733    0.034089    0.0185    0    0    0    1    0    1    0    0;
    147    11    0.000277    0.002015    0.003    288    288    288    1    0    1    0    0;
    387    2571    0.00881    0.033995    0.0607    289    289    289    1    0    1    0    0;
    437    2571    0.004642    0.019832    0.0354    255    255    255    1    0    1    0    0;
    955    11    0.008861    0.03506    0.0623    288    288    288    1    0    1    0    0;
    991    11    0.006993    0.032869    0.0557    255    255    255    1    0    1    0    0;
    1774    2571    0.002173    0.008731    0.0152    0    0    0    1    0    1    0    0;
    1817    11    0.00077    0.003121    0.0051    0    0    0    1    0    1    0    0;
    2092    2571    0.004109    0.016138    0.0284    288    288    288    1    0    1    0    0;
    2591    12    8.3e-05    0.000907    0.0202    1034    1034    1034    1    0    1    0    0;
    419    12    0.000552    0.006726    0.0939    1786    1786    1786    1    0    1    0    0;
    808    12    0.000512    0.008012    0.2455    2462    2462    2462    1    0    1    0    0;
    1158    12    0.001107    0.00918    0.1906    1644    1644    1644    1    0    1    0    0;
    148    12    6.2e-05    0.000741    0.0173    1095    1095    1095    1    0    1    0    0;
    808    12    0.000512    0.008019    0.2455    2462    2462    2462    1    0    1    0    0;
    808    12    0.001153    0.013123    0.1841    1433    1433    1433    1    0    1    0    0;
    167    13    0.000158    0.000672    0.0719    331    331    331    1    0    1    0    0;
    1463    13    4.5e-05    8.9e-05    0.002    268    268    268    1    0    1    0    0;
    820    14    0.033258    0.090955    0.001    0    0    0    1    0    1    0    0;
    465    15    0.071303    0.180902    0.0021    0    0    0    1    0    1    0    0;
    878    15    0.071554    0.18191    0.0021    0    0    0    1    0    1    0    0;
    2664    16    0.00478    0.028622    0.0547    455    455    455    1    0    1    0    0;
    451    16    0.00478    0.028583    0.0547    455    455    455    1    0    1    0    0;
    151    17    0.000257    0.000514    0.0294    0    0    0    1    0    1    0    0;
    987    18    0.000257    0.002153    0.2147    452    452    452    1    0    1    0    0;
    1264    18    0.000277    0.000869    0.0931    481    481    481    1    0    1    0    0;
    1903    19    0.000756    0.00252    0    0    0    0    1    0    1    0    0;
    1247    20    0.000237    0.00083    0.1863    268    268    268    1    0    1    0    0;
    1301    20    0.000178    0.000612    0.1377    268    268    268    1    0    1    0    0;
    59    21    0.002568    0.011753    0.0203    424    424    424    1    0    1    0    0;
    1908    21    0.002568    0.011615    0.0228    290    290    290    1    0    1    0    0;
    591    22    0.102293    0.226757    0.0025    0    0    0    1    0    1    0    0;
    855    22    0.177551    0.405291    0.0046    0    0    0    1    0    1    0    0;
    1199    22    0.088264    0.161566    0.0017    0    0    0    1    0    1    0    0;
    820    23    0.043336    0.11867    0.001    0    0    0    1    0    1    0    0;
    1059    23    0.067775    0.139834    0.001    0    0    0    1    0    1    0    0;
    1691    23    0.047367    0.16125    0.0021    0    0    0    1    0    1    0    0;
    1922    23    0.004031    0.016629    0.001    0    0    0    1    0    1    0    0;
    1377    24    9.9e-05    0.00077    0.078    379    379    379    1    0    1    0    0;
    1377    2573    9.9e-05    0.00077    0.077    379    379    379    1    0    1    0    0;
    1908    25    0.000514    0.003437    0.0061    290    290    290    1    0    1    0    0;
    1914    25    0.005476    0.036879    0.1255    522    522    522    1    0    1    0    0;
    59    25    0.000514    0.003457    0.0061    418    418    418    1    0    1    0    0;
    1138    26    0.003477    0.01118    0.0187    304    304    304    1    0    1    0    0;
    1409    26    0.000612    0.003121    0.0152    270    270    270    1    0    1    0    0;
    2755    27    0.013857    0.035525    0.0004    0    0    0    1    0    1    0    0;
    1514    28    2.4e-05    0.000144    0.0213    701    701    701    1    0    1    0    0;
    1514    2574    7.1e-05    0.000162    0.0162    251    251    251    1    0    1    0    0;
    249    29    0.068027    0.173091    0.002    0    0    0    1    0    1    0    0;
    296    29    0.027211    0.068783    0.001    0    0    0    1    0    1    0    0;
    776    29    0.03099    0.202822    0.002    0    0    0    1    0    1    0    0;
    1274    30    0.000257    0.001165    0.002    405    405    405    1    0    1    0    0;
    1906    31    0.047317    0.131595    0.0015    0    0    0    1    0    1    0    0;
    2686    32    0.075838    0.224742    0.0027    0    0    0    1    0    1    0    0;
    648    32    0.028471    0.089695    0.001    0    0    0    1    0    1    0    0;
    1337    32    0.080373    0.255732    0.003    0    0    0    1    0    1    0    0;
    2050    32    0.000252    0.000504    0    0    0    0    1    0    1    0    0;
    1907    33    0.000444    0.001136    0    0    0    0    1    0    1    0    0;
    1370    34    0.057284    0.130864    0    0    0    0    1    0    1    0    0;
    242    35    0.054749    0.157445    0.0027    0    0    0    1    0    1    0    0;
    1507    35    0.038549    0.103049    0.0012    0    0    0    1    0    1    0    0;
    2117    35    0.012598    0.052406    0.0006    0    0    0    1    0    1    0    0;
    800    36    0.006914    0.020741    0    0    0    0    1    0    1    0    0;
    712    37    0.032124    0.082892    0.003    0    0    0    1    0    1    0    0;
    1655    37    0.025573    0.09869    0.0012    0    0    0    1    0    1    0    0;
    637    39    0.005709    0.037926    0.0688    492    492    492    1    0    1    0    0;
    2032    39    0.001758    0.011654    0.0208    492    492    492    1    0    1    0    0;
    2585    40    0.001383    0.009462    0.0172    463    463    463    1    0    1    0    0;
    593    40    0.00156    0.006933    0.0121    432    432    432    1    0    1    0    0;
    788    40    0.006376    0.028733    0.0506    432    432    432    1    0    1    0    0;
    1291    40    0.00158    0.010627    0.0192    481    481    481    1    0    1    0    0;
    1108    41    0.001086    0.003536    0.3766    506    506    506    1    0    1    0    0;
    1108    41    0.001086    0.003536    0.3766    506    506    506    1    0    1    0    0;
    235    42    0.04059    0.110708    0.0013    0    0    0    1    0    1    0    0;
    248    42    0.073646    0.225598    0.0087    0    0    0    1    0    1    0    0;
    285    42    0.02066    0.088687    0.0021    0    0    0    1    0    1    0    0;
    1933    42    0.019904    0.08516    0.001    0    0    0    1    0    1    0    0;
    1935    42    0.014361    0.068027    0.0035    0    0    0    1    0    1    0    0;
    1770    42    0.059209    0.150164    0.0021    0    0    0    1    0    1    0    0;
    183    43    0.004741    0.020385    0.0334    0    0    0    1    0    1    0    0;
    2006    43    0.009027    0.048869    0.084    351    351    351    1    0    1    0    0;
    2036    43    0.003516    0.016257    0.0273    311    311    311    1    0    1    0    0;
    265    44    0.059461    0.163265    0.0018    0    0    0    1    0    1    0    0;
    1652    44    0.146384    0.373394    0.0051    0    0    0    1    0    1    0    0;
    389    45    0.000514    0.003417    0.0278    452    452    452    1    0    1    0    0;
    408    45    0.001084    0.007198    0.0132    448    448    448    1    0    1    0    0;
    1955    45    0.000523    0.002436    0.0167    348    348    348    1    0    1    0    0;
    389    45    0.000514    0.003457    0.0203    356    356    356    1    0    1    0    0;
    408    45    0.001086    0.007249    0.0132    540    540    540    1    0    1    0    0;
    1954    45    0.000553    0.002469    0.0157    405    405    405    1    0    1    0    0;
    408    45    0.001086    0.007269    0.0132    540    540    540    1    0    1    0    0;
    380    47    0.016125    0.068279    0.0081    0    0    0    1    0    1    0    0;
    1699    47    0.059209    0.150416    0.0021    0    0    0    1    0    1    0    0;
    380    47    0.016125    0.068279    0.0081    0    0    0    1    0    1    0    0;
    1610    48    0.102293    0.245906    0.0027    0    0    0    1    0    1    0    0;
    2120    48    0.036533    0.088435    0.001    0    0    0    1    0    1    0    0;
    1006    49    0.019148    0.081381    0.0012    0    0    0    1    0    1    0    0;
    1585    49    0.02318    0.04258    0.0006    0    0    0    1    0    1    0    0;
    1972    49    0.002268    0.022424    0.0002    0    0    0    1    0    1    0    0;
    2121    2576    0.012094    0.030486    0.0004    0    0    0    1    0    1    0    0;
    1006    2576    0.03351    0.088435    0.001    0    0    0    1    0    1    0    0;
    1971    2576    0.00252    0.02066    0.0002    0    0    0    1    0    1    0    0;
    1103    50    0.001837    0.011694    0.0759    467    467    467    1    0    1    0    0;
    1256    50    0.001067    0.007131    0.0132    413    413    413    1    0    1    0    0;
    1709    50    0.001284    0.008593    0.0152    541    541    541    1    0    1    0    0;
    2895    50    0.001284    0.008593    0.0162    541    541    541    1    0    1    0    0;
    2895    50    0.001284    0.008533    0.0162    541    541    541    1    0    1    0    0;
    2621    51    0.000494    0.000928    0.0699    0    0    0    1    0    1    0    0;
    434    51    0.000184    0.00159    0.1661    422    422    422    1    0    1    0    0;
    1497    51    0.000198    0.001711    0.1711    385    385    385    1    0    1    0    0;
    1522    51    0.000751    0.003358    0.1534    385    385    385    1    0    1    0    0;
    450    52    0.000178    0.001047    0.1499    452    452    452    1    0    1    0    0;
    651    2942    0.000119    0.000474    0.0688    452    452    452    1    0    1    0    0;
    1247    52    0.000316    0.002232    0.2774    452    452    452    1    0    1    0    0;
    2603    53    0.047115    0.108088    0.0031    0    0    0    1    0    1    0    0;
    1126    53    0.036281    0.154195    0.0037    0    0    0    1    0    1    0    0;
    1686    54    0.037227    0.106836    0.0328    0    0    0    1    0    1    0    0;
    1929    54    0.006089    0.020756    0.0067    0    0    0    1    0    1    0    0;
    1109    55    0.000729    0.005118    0.0933    389    389    389    1    0    1    0    0;
    1109    55    0.000755    0.005235    0.0909    419    419    419    1    0    1    0    0;
...